@<TRIPOS>MOLECULE
cofactor.pdb
 43 46 0 0 0
SMALL
GASTEIGER

@<TRIPOS>ATOM
      1  C1        -4.1780  -10.3740   -0.8140 C.3     1  HEM1        0.0323
      2  C2        -3.8280   -9.3010    0.1630 C.ar    1  HEM1       -0.0067
      3  C3        -4.7110   -8.4450    0.7880 C.ar    1  HEM1       -0.0066
      4  C4        -3.9320   -7.5820    1.6180 C.ar    1  HEM1        0.0785
      5  C5        -4.4090   -6.5350    2.4550 C.2     1  HEM1        0.0375
      6  C6        -3.6690   -5.6170    3.1890 C.2     1  HEM1        0.0785
      7  N1        -2.3230   -5.5930    3.3470 N.2     1  HEM1       -0.2459
      8  C7        -1.9980   -4.5620    4.1330 C.2     1  HEM1        0.0785
      9  C8        -0.6750   -4.2200    4.5100 C.2     1  HEM1        0.0375
     10  C9         0.5460   -4.7600    4.0630 C.ar    1  HEM1        0.0785
     11  C10        1.8530   -4.3130    4.4260 C.ar    1  HEM1       -0.0070
     12  C11        2.7750   -5.1480    3.7240 C.ar    1  HEM1       -0.0067
     13  C12        1.9830   -6.0590    2.9480 C.ar    1  HEM1        0.0785
     14  N2         0.6620   -5.7850    3.1860 N.ar    1  HEM1       -0.2459
     15  C13        2.4670   -7.0410    2.0570 C.2     1  HEM1        0.0375
     16  C14        1.7260   -7.9680    1.2970 C.2     1  HEM1        0.0785
     17  C15        2.2490   -8.9960    0.4120 C.2     1  HEM1       -0.0070
     18  C16        1.1950   -9.6790   -0.1220 C.2     1  HEM1       -0.0067
     19  C17       -0.0180   -9.0840    0.4440 C.2     1  HEM1        0.0785
     20  N3         0.3590   -8.1100    1.2580 N.2     1  HEM1       -0.2459
     21  C18       -1.3090   -9.5160    0.1450 C.2     1  HEM1        0.0375
     22  C19       -2.4900   -8.9390    0.5840 C.ar    1  HEM1        0.0785
     23  N4        -2.6110   -7.9270    1.4640 N.ar    1  HEM1       -0.2459
     24  C20        1.2410  -10.8150   -1.1110 C.3     1  HEM1        0.0323
     25  C21        3.7510   -9.1800    0.1490 C.3     1  HEM1        0.0276
     26  C22        4.2760  -10.4200    0.5890 C.3     1  HEM1        0.0051
     27  C23        4.2590   -5.1250    3.7760 C.3     1  HEM1        0.0323
     28  C24        2.1350   -3.1840    5.3950 C.3     1  HEM1        0.0276
     29  C25        2.8740   -3.5210    6.5610 C.3     1  HEM1        0.0051
     30  C26       -3.1840   -3.8570    4.5410 C.2     1  HEM1       -0.0067
     31  C27       -4.2490   -4.5200    3.9480 C.2     1  HEM1       -0.0066
     32  C28       -5.7210   -4.2250    3.9850 C.3     1  HEM1        0.0335
     33  C29       -6.1260   -3.1740    2.9550 C.3     1  HEM1        0.0464
     34  C30       -7.6010   -2.8780    2.8910 C.2     1  HEM1        0.0507
     35  O1        -8.4220   -3.6870    3.4190 O.co2   1  HEM1       -0.5492
     36  O2        -7.9960   -1.8260    2.3320 O.co2   1  HEM1       -0.5492
     37  C31       -3.2480   -2.6560    5.4470 C.3     1  HEM1        0.0323
     38  C32       -6.2300   -8.3720    0.6940 C.3     1  HEM1        0.0344
     39  C33       -6.8790   -9.2960    1.7050 C.3     1  HEM1        0.0571
     40  C34       -8.3650   -9.2300    1.6820 C.2     1  HEM1        0.0962
     41  O3        -9.0080  -10.2080    2.1060 O.co2   1  HEM1       -0.3083
     42  O4        -8.9420   -8.1990    1.2350 O.co2   1  HEM1       -0.8471
     43  FE1       -1.0260   -7.0100    2.5810 F       1  HEM1        0.0000
@<TRIPOS>BOND
     1     1     2    1
     2     2    22   ar
     3     2     3   ar
     4     3     4   ar
     5     3    38    1
     6     4    23   ar
     7     4     5    2
     8     5     6    1
     9     6     7    2
    10     6    31    1
    11     7     8    1
    12     8    30    1
    13     8     9    2
    14     9    10    1
    15    10    11   ar
    16    10    14   ar
    17    11    12   ar
    18    11    28    1
    19    12    27    1
    20    12    13   ar
    21    13    15    1
    22    13    14   ar
    23    15    16    2
    24    16    20    1
    25    16    17    1
    26    17    25    1
    27    17    18    2
    28    18    24    1
    29    18    19    1
    30    19    21    1
    31    19    20    2
    32    21    22    2
    33    22    23   ar
    34    25    26    1
    35    28    29    1
    36    30    31    2
    37    30    37    1
    38    31    32    1
    39    32    33    1
    40    33    34    1
    41    34    36   ar
    42    34    35   ar
    43    38    39    1
    44    39    40    1
    45    40    42   ar
    46    40    41   ar
