# neoprene, -CH2-CH=C(Cl)-CH2- optimized geometry
# Created by GaussView 6.0.16
#

#
#

@<TRIPOS>MOLECULE
Molecule Name
100 100
SMALL
NO_CHARGES


@<TRIPOS>ATOM
1 C1    -1.9030     0.5528     0.0000 C
2 H2    -2.2156     1.4194     0.6118 H
3 H3    -1.8719     0.8886    -1.0483 H
4 C4    -0.5415     0.0964     0.4351 C
5 H5    -0.3971    -0.0948     1.5073 H
6 C6     0.5391    -0.1243    -0.3382 C
7 C7     1.8978    -0.5567     0.1443 C
8 H8     1.8077    -0.8593     1.2028 H
9 H9     2.2258    -1.4459    -0.4230 H
10 Cl10     0.4587     0.1238    -2.0917 Cl
11 C11     2.9746     0.5528     0.0000 C
12 C12     7.8522     0.5528     0.0000 C
13 C13    12.7299     0.5528     0.0000 C
14 C14    17.6075     0.5528     0.0000 C
15 C15    22.4852     0.5528     0.0000 C
16 C16    27.3628     0.5528     0.0000 C
17 C17    32.2405     0.5528     0.0000 C
18 C18    37.1181     0.5528     0.0000 C
19 C19    41.9958     0.5528     0.0000 C
20 H20     2.6621     1.4194     0.6118 H
21 H21     7.5397     1.4194     0.6118 H
22 H22    12.4174     1.4194     0.6118 H
23 H23    17.2950     1.4194     0.6118 H
24 H24    22.1727     1.4194     0.6118 H
25 H25    27.0503     1.4194     0.6118 H
26 H26    31.9280     1.4194     0.6118 H
27 H27    36.8056     1.4194     0.6118 H
28 H28    41.6833     1.4194     0.6118 H
29 H29     3.0057     0.8886    -1.0483 H
30 H30     7.8834     0.8886    -1.0483 H
31 H31    12.7610     0.8886    -1.0483 H
32 H32    17.6386     0.8886    -1.0483 H
33 H33    22.5163     0.8886    -1.0483 H
34 H34    27.3939     0.8886    -1.0483 H
35 H35    32.2716     0.8886    -1.0483 H
36 H36    37.1492     0.8886    -1.0483 H
37 H37    42.0269     0.8886    -1.0483 H
38 C38     4.3361     0.0964     0.4351 C
39 C39     9.2138     0.0964     0.4351 C
40 C40    14.0914     0.0964     0.4351 C
41 C41    18.9691     0.0964     0.4351 C
42 C42    23.8467     0.0964     0.4351 C
43 C43    28.7244     0.0964     0.4351 C
44 C44    33.6020     0.0964     0.4351 C
45 C45    38.4796     0.0964     0.4351 C
46 C46    43.3573     0.0964     0.4351 C
47 H47     4.4806    -0.0948     1.5073 H
48 H48     9.3582    -0.0948     1.5073 H
49 H49    14.2359    -0.0948     1.5073 H
50 H50    19.1135    -0.0948     1.5073 H
51 H51    23.9912    -0.0948     1.5073 H
52 H52    28.8688    -0.0948     1.5073 H
53 H53    33.7465    -0.0948     1.5073 H
54 H54    38.6241    -0.0948     1.5073 H
55 H55    43.5018    -0.0948     1.5073 H
56 C56     5.4167    -0.1243    -0.3382 C
57 C57    10.2944    -0.1243    -0.3382 C
58 C58    15.1720    -0.1243    -0.3382 C
59 C59    20.0497    -0.1243    -0.3382 C
60 C60    24.9273    -0.1243    -0.3382 C
61 C61    29.8050    -0.1243    -0.3382 C
62 C62    34.6826    -0.1243    -0.3382 C
63 C63    39.5603    -0.1243    -0.3382 C
64 C64    44.4379    -0.1243    -0.3382 C
65 C65     6.7755    -0.5567     0.1443 C
66 C66    11.6531    -0.5567     0.1443 C
67 C67    16.5308    -0.5567     0.1443 C
68 C68    21.4084    -0.5567     0.1443 C
69 C69    26.2861    -0.5567     0.1443 C
70 C70    31.1637    -0.5567     0.1443 C
71 C71    36.0414    -0.5567     0.1443 C
72 C72    40.9190    -0.5567     0.1443 C
73 C73    45.7967    -0.5567     0.1443 C
74 H74     6.6853    -0.8593     1.2028 H
75 H75    11.5630    -0.8593     1.2028 H
76 H76    16.4406    -0.8593     1.2028 H
77 H77    21.3183    -0.8593     1.2028 H
78 H78    26.1959    -0.8593     1.2028 H
79 H79    31.0736    -0.8593     1.2028 H
80 H80    35.9512    -0.8593     1.2028 H
81 H81    40.8289    -0.8593     1.2028 H
82 H82    45.7065    -0.8593     1.2028 H
83 H83     7.1034    -1.4459    -0.4230 H
84 H84    11.9811    -1.4459    -0.4230 H
85 H85    16.8587    -1.4459    -0.4230 H
86 H86    21.7364    -1.4459    -0.4230 H
87 H87    26.6140    -1.4459    -0.4230 H
88 H88    31.4916    -1.4459    -0.4230 H
89 H89    36.3693    -1.4459    -0.4230 H
90 H90    41.2469    -1.4459    -0.4230 H
91 H91    46.1246    -1.4459    -0.4230 H
92 Cl92     5.3364     0.1238    -2.0917 Cl
93 Cl93    10.2140     0.1238    -2.0917 Cl
94 Cl94    15.0917     0.1238    -2.0917 Cl
95 Cl95    19.9693     0.1238    -2.0917 Cl
96 Cl96    24.8470     0.1238    -2.0917 Cl
97 Cl97    29.7246     0.1238    -2.0917 Cl
98 Cl98    34.6023     0.1238    -2.0917 Cl
99 Cl99    39.4799     0.1238    -2.0917 Cl
100 Cl100    44.3575     0.1238    -2.0917 Cl
@<TRIPOS>BOND
1 1 2 1
2 1 3 1
3 1 4 1
4 1 73 1
5 4 5 1
6 4 6 2
7 6 7 1
8 6 10 1
9 7 8 1
10 7 9 1
11 7 11 1
12 11 20 1
13 11 29 1
14 11 38 1
15 12 21 1
16 12 30 1
17 12 39 1
18 12 65 1
19 13 22 1
20 13 31 1
21 13 40 1
22 13 66 1
23 14 23 1
24 14 32 1
25 14 41 1
26 14 67 1
27 15 24 1
28 15 33 1
29 15 42 1
30 15 68 1
31 16 25 1
32 16 34 1
33 16 43 1
34 16 69 1
35 17 26 1
36 17 35 1
37 17 44 1
38 17 70 1
39 18 27 1
40 18 36 1
41 18 45 1
42 18 71 1
43 19 28 1
44 19 37 1
45 19 46 1
46 19 72 1
47 38 47 1
48 38 56 2
49 39 48 1
50 39 57 2
51 40 49 1
52 40 58 2
53 41 50 1
54 41 59 2
55 42 51 1
56 42 60 2
57 43 52 1
58 43 61 2
59 44 53 1
60 44 62 2
61 45 54 1
62 45 63 2
63 46 55 1
64 46 64 2
65 56 65 1
66 56 92 1
67 57 66 1
68 57 93 1
69 58 67 1
70 58 94 1
71 59 68 1
72 59 95 1
73 60 69 1
74 60 96 1
75 61 70 1
76 61 97 1
77 62 71 1
78 62 98 1
79 63 72 1
80 63 99 1
81 64 73 1
82 64 100 1
83 65 74 1
84 65 83 1
85 66 75 1
86 66 84 1
87 67 76 1
88 67 85 1
89 68 77 1
90 68 86 1
91 69 78 1
92 69 87 1
93 70 79 1
94 70 88 1
95 71 80 1
96 71 89 1
97 72 81 1
98 72 90 1
99 73 82 1
100 73 91 1
