# Generated by Multiwfn
# Created by GaussView 6.0.16
#

#
#

@<TRIPOS>MOLECULE
Molecule Name
48 54
SMALL
NO_CHARGES


@<TRIPOS>ATOM
1 C1    -1.2974     0.5406     2.8652 C
2 C2    -0.6057     0.3077     4.0908 C
3 C3     0.6057    -0.3077     4.0908 C
4 C4     1.2974    -0.5406     2.8652 C
5 C5     0.7118    -0.1451     1.6420 C
6 C6    -0.7118     0.1451     1.6420 C
7 C7     2.5775    -1.1672     2.8668 C
8 C8     3.2369    -1.3884     1.6981 C
9 C9     2.7564    -0.8226     0.4815 C
10 C10     1.5700    -0.0672     0.4797 C
11 C11    -1.5700     0.0672     0.4797 C
12 C12    -2.7564     0.8226     0.4815 C
13 C13    -3.2369     1.3884     1.6981 C
14 C14    -2.5775     1.1672     2.8668 C
15 C15     3.4782    -1.0200    -0.7396 C
16 C16     3.0638    -0.4477    -1.8965 C
17 C17     1.9917     0.5002    -1.8901 C
18 C18     1.2974     0.7599    -0.6829 C
19 C19     1.6664     1.2313    -3.0546 C
20 C20     0.7376     2.2432    -3.0166 C
21 C21     0.1366     2.5859    -1.7920 C
22 C22     0.4171     1.8665    -0.6541 C
23 C23    -3.0638     0.4477    -1.8965 C
24 C24    -3.4782     1.0200    -0.7396 C
25 H25    -1.0942     0.5774     5.0232 H
26 H26     1.0942    -0.5774     5.0232 H
27 H27     2.9895    -1.5076     3.8129 H
28 H28     4.1724    -1.9411     1.6832 H
29 H29    -4.1724     1.9411     1.6832 H
30 H30    -2.9895     1.5076     3.8129 H
31 H31     4.3519    -1.6662    -0.7219 H
32 H32     3.5852    -0.6404    -2.8303 H
33 H33     2.1848     0.9935    -3.9800 H
34 H34     0.4968     2.8007    -3.9168 H
35 H35    -0.5489     3.4261    -1.7398 H
36 H36    -0.0365     2.1618     0.2838 H
37 H37    -3.5852     0.6404    -2.8303 H
38 H38    -4.3519     1.6662    -0.7219 H
39 C39    -1.9917    -0.5002    -1.8901 C
40 C40    -1.6664    -1.2313    -3.0546 C
41 C41    -0.7376    -2.2432    -3.0166 C
42 C42    -0.1366    -2.5859    -1.7920 C
43 C43    -0.4171    -1.8665    -0.6541 C
44 C44    -1.2974    -0.7599    -0.6829 C
45 H45    -2.1848    -0.9935    -3.9800 H
46 H46    -0.4968    -2.8007    -3.9168 H
47 H47     0.5489    -3.4261    -1.7398 H
48 H48     0.0365    -2.1618     0.2838 H
@<TRIPOS>BOND
1 1 2 Ar
2 1 6 Ar
3 1 14 Ar
4 2 3 2
5 2 25 1
6 3 4 Ar
7 3 26 1
8 4 5 Ar
9 4 7 Ar
10 5 6 1
11 5 10 Ar
12 6 11 Ar
13 7 8 2
14 7 27 1
15 8 9 Ar
16 8 28 1
17 9 10 Ar
18 9 15 Ar
19 10 18 1
20 11 12 Ar
21 11 44 1
22 12 13 Ar
23 12 24 Ar
24 13 14 2
25 13 29 1
26 14 30 1
27 15 16 2
28 15 31 1
29 16 17 Ar
30 16 32 1
31 17 18 Ar
32 17 19 Ar
33 18 22 Ar
34 19 20 2
35 19 33 1
36 20 21 Ar
37 20 34 1
38 21 22 2
39 21 35 1
40 22 36 1
41 23 24 2
42 23 37 1
43 23 39 Ar
44 24 38 1
45 39 40 Ar
46 39 44 Ar
47 40 41 2
48 40 45 1
49 41 42 Ar
50 41 46 1
51 42 43 2
52 42 47 1
53 43 44 Ar
54 43 48 1
