# Molecule Name
# Created by GaussView 6.0.16
#

#
#

@<TRIPOS>MOLECULE
Molecule Name
6 5
SMALL
NO_CHARGES


@<TRIPOS>ATOM
1 C1     0.0000     0.0000     0.1844 C
2 O2     0.0000     0.0000     1.3134 O
3 B3     0.0000     0.0000    -1.3360 B
4 H4     0.0000     1.1665    -1.6443 H
5 H5    -1.0102    -0.5833    -1.6443 H
6 H6     1.0102    -0.5833    -1.6443 H
@<TRIPOS>BOND
1 1 2 3
2 1 3 1
3 3 4 1
4 3 5 1
5 3 6 1
