# Molecule Name
# Created by GaussView 6.0.16
#

#
#

@<TRIPOS>MOLECULE
Molecule Name
50 58
SMALL
NO_CHARGES


@<TRIPOS>ATOM
1 C1    -5.3353    -1.0687    -1.4721 C
2 C2    -6.5876    -1.2340    -0.9194 C
3 C3    -6.7148    -1.2237     0.4788 C
4 C4    -5.5821    -1.0535     1.2573 C
5 C5    -4.3000    -0.8851     0.6904 C
6 N6    -4.2292    -0.8921    -0.6947 N
7 H7    -7.6852    -1.3532     0.9475 H
8 H8    -5.1206    -1.0666    -2.5324 H
9 H9    -7.4400    -1.3722    -1.5746 H
10 H10    -5.6419    -1.0481     2.3396 H
11 O11    -3.0761    -0.7240    -1.3329 O
12 S12    -2.8757    -0.6790     1.6421 S
13 C13     2.2972    -2.0568     1.6936 C
14 C14     3.1148    -3.1653     1.6530 C
15 C15     2.8773    -4.1430     0.6713 C
16 C16     1.8282    -3.9785    -0.2145 C
17 C17     0.9828    -2.8454    -0.1678 C
18 N18     1.2823    -1.9073     0.8004 N
19 H19     3.5055    -5.0263     0.6108 H
20 H20     2.3986    -1.2342     2.3862 H
21 H21     3.9174    -3.2582     2.3752 H
22 H22     1.6116    -4.7200    -0.9746 H
23 O23     0.5433    -0.7836     0.9040 O
24 S24    -0.3543    -2.6357    -1.2270 S
25 Zn25    -1.3704    -0.8224    -0.1421 Zn
26 C26    -2.5250     2.3180    -1.0429 C
27 C27    -3.3230     3.4178    -0.8137 C
28 C28    -2.8866     4.3910     0.1012 C
29 C29    -1.6728     4.2240     0.7416 C
30 C30    -0.8516     3.0966     0.5070 C
31 N31    -1.3386     2.1690    -0.3923 N
32 H32    -3.4922     5.2690     0.3037 H
33 H33    -2.7681     1.4928    -1.7002 H
34 H34    -4.2648     3.5061    -1.3425 H
35 H35    -1.3038     4.9580     1.4484 H
36 O36    -0.6174     1.0666    -0.6825 O
37 S37     0.6709     2.8938     1.2800 S
38 C38     5.5039     0.6378     0.9311 C
39 C39     6.6783     0.5391     0.2156 C
40 C40     6.6106     0.4556    -1.1845 C
41 C41     5.3711     0.4797    -1.8011 C
42 C42     4.1690     0.5832    -1.0674 C
43 N43     4.2891     0.6536     0.3124 N
44 H44     7.5153     0.3785    -1.7791 H
45 H45     5.4391     0.7141     2.0082 H
46 H46     7.6224     0.5323     0.7484 H
47 H47     5.2808     0.4236    -2.8799 H
48 O48     3.2234     0.7413     1.0996 O
49 S49     2.6172     0.6219    -1.8175 S
50 Zn50     1.4023     0.9921     0.1402 Zn
@<TRIPOS>BOND
1 1 2 2
2 1 6 Ar
3 1 8 1
4 2 3 Ar
5 2 9 1
6 3 4 2
7 3 7 1
8 4 5 Ar
9 4 10 1
10 5 6 1
11 5 12 1
12 6 11 1
13 11 25 1
14 12 25 1
15 13 14 2
16 13 18 Ar
17 13 20 1
18 14 15 Ar
19 14 21 1
20 15 16 2
21 15 19 1
22 16 17 Ar
23 16 22 1
24 17 18 Ar
25 17 24 1
26 18 23 1
27 23 50 1
28 23 25 1
29 24 25 1
30 25 36 1
31 26 27 2
32 26 31 Ar
33 26 33 1
34 27 28 Ar
35 27 34 1
36 28 29 2
37 28 32 1
38 29 30 Ar
39 29 35 1
40 30 31 Ar
41 30 37 1
42 31 36 1
43 36 50 1
44 37 50 1
45 38 39 2
46 38 43 Ar
47 38 45 1
48 39 40 Ar
49 39 46 1
50 40 41 2
51 40 44 1
52 41 42 Ar
53 41 47 1
54 42 43 1
55 42 49 1
56 43 48 1
57 48 50 1
58 49 50 1
