# Title
# Created by GaussView 6.0.16
#

#
#

@<TRIPOS>MOLECULE
Molecule Name
424 512
SMALL
NO_CHARGES


@<TRIPOS>ATOM
1 Zn1     7.5882     7.5882     5.3447 Zn
2 Zn2    18.2777    18.2777    20.5211 Zn
3 Zn3    18.2777    18.2777     5.3447 Zn
4 Zn4     7.5882     7.5882    20.5211 Zn
5 Zn5    18.2777     7.5882    20.5211 Zn
6 Zn6     7.5882    18.2777     5.3447 Zn
7 Zn7     7.5882    18.2777    20.5211 Zn
8 Zn8    18.2777     7.5882     5.3447 Zn
9 Zn9     5.3447     7.5882     7.5882 Zn
10 Zn10    20.5211    18.2777    18.2777 Zn
11 Zn11     5.3447    18.2777    18.2777 Zn
12 Zn12    20.5211     7.5882     7.5882 Zn
13 Zn13    20.5211    18.2777     7.5882 Zn
14 Zn14     5.3447     7.5882    18.2777 Zn
15 Zn15    20.5211     7.5882    18.2777 Zn
16 Zn16     5.3447    18.2777     7.5882 Zn
17 Zn17     7.5882     5.3447     7.5882 Zn
18 Zn18    18.2777    20.5211    18.2777 Zn
19 Zn19    18.2777     5.3447    18.2777 Zn
20 Zn20     7.5882    20.5211     7.5882 Zn
21 Zn21     7.5882    20.5211    18.2777 Zn
22 Zn22    18.2777     5.3447     7.5882 Zn
23 Zn23    18.2777    20.5211     7.5882 Zn
24 Zn24     7.5882     5.3447    18.2777 Zn
25 Zn25     5.3447    20.5211    20.5211 Zn
26 Zn26    20.5211     5.3447     5.3447 Zn
27 Zn27     5.3447     5.3447     5.3447 Zn
28 Zn28    20.5211    20.5211    20.5211 Zn
29 Zn29    20.5211     5.3447    20.5211 Zn
30 Zn30     5.3447    20.5211     5.3447 Zn
31 Zn31    20.5211    20.5211     5.3447 Zn
32 Zn32     5.3447     5.3447    20.5211 Zn
33 O33     6.4665     6.4665     6.4665 O
34 O34    19.3994    19.3994    19.3994 O
35 O35    19.3994    19.3994     6.4665 O
36 O36     6.4665     6.4665    19.3994 O
37 O37    19.3994     6.4665    19.3994 O
38 O38     6.4665    19.3994     6.4665 O
39 O39     6.4665    19.3994    19.3994 O
40 O40    19.3994     6.4665     6.4665 O
41 O41     7.2694     9.4759     5.6635 O
42 O42    18.5965    16.3899    20.2023 O
43 O43    18.5965    16.3899     5.6635 O
44 O44     7.2694     9.4759    20.2023 O
45 O45    18.5965     9.4759    20.2023 O
46 O46     7.2694    16.3899     5.6635 O
47 O47     7.2694    16.3899    20.2023 O
48 O48    18.5965     9.4759     5.6635 O
49 O49     5.6635     7.2694     9.4759 O
50 O50    20.2023    18.5965    16.3899 O
51 O51     5.6635    18.5965    16.3899 O
52 O52    20.2023     7.2694     9.4759 O
53 O53    20.2023    18.5965     9.4759 O
54 O54     5.6635     7.2694    16.3899 O
55 O55    20.2023     7.2694    16.3899 O
56 O56     5.6635    18.5965     9.4759 O
57 O57     9.4759     5.6635     7.2694 O
58 O58    16.3899    20.2023    18.5965 O
59 O59    16.3899     5.6635    18.5965 O
60 O60     9.4759    20.2023     7.2694 O
61 O61     9.4759    20.2023    18.5965 O
62 O62    16.3899     5.6635     7.2694 O
63 O63    16.3899    20.2023     7.2694 O
64 O64     9.4759     5.6635    18.5965 O
65 O65     9.4759     7.2694    20.2023 O
66 O66    16.3899    18.5965     5.6635 O
67 O67    16.3899    18.5965    20.2023 O
68 O68     9.4759     7.2694     5.6635 O
69 O69     9.4759    18.5965     5.6635 O
70 O70    16.3899     7.2694    20.2023 O
71 O71    16.3899     7.2694     5.6635 O
72 O72     9.4759    18.5965    20.2023 O
73 O73     7.2694     5.6635    16.3899 O
74 O74    18.5965    20.2023     9.4759 O
75 O75    18.5965     5.6635     9.4759 O
76 O76     7.2694    20.2023    16.3899 O
77 O77    18.5965    20.2023    16.3899 O
78 O78     7.2694     5.6635     9.4759 O
79 O79     7.2694    20.2023     9.4759 O
80 O80    18.5965     5.6635    16.3899 O
81 O81     5.6635     9.4759    18.5965 O
82 O82    20.2023    16.3899     7.2694 O
83 O83     5.6635    16.3899     7.2694 O
84 O84    20.2023     9.4759    18.5965 O
85 O85    20.2023     9.4759     7.2694 O
86 O86     5.6635    16.3899    18.5965 O
87 O87    20.2023    16.3899    18.5965 O
88 O88     5.6635     9.4759     7.2694 O
89 O89     7.2694    22.4088    18.5965 O
90 O90    18.5965     3.4570     7.2694 O
91 O91    18.5965     3.4570    18.5965 O
92 O92     7.2694    22.4088     7.2694 O
93 O93    18.5965    22.4088     7.2694 O
94 O94     7.2694     3.4570    18.5965 O
95 O95     7.2694     3.4570     7.2694 O
96 O96    18.5965    22.4088    18.5965 O
97 O97     5.6635    20.2023    22.4088 O
98 O98    20.2023     5.6635     3.4570 O
99 O99     5.6635     5.6635     3.4570 O
100 O100    20.2023    20.2023    22.4088 O
101 O101    20.2023     5.6635    22.4088 O
102 O102     5.6635    20.2023     3.4570 O
103 O103    20.2023    20.2023     3.4570 O
104 O104     5.6635     5.6635    22.4088 O
105 O105     7.2694    18.5965     3.4570 O
106 O106    18.5965     7.2694    22.4088 O
107 O107    18.5965    18.5965    22.4088 O
108 O108     7.2694     7.2694     3.4570 O
109 O109    18.5965     7.2694     3.4570 O
110 O110     7.2694    18.5965    22.4088 O
111 O111     7.2694     7.2694    22.4088 O
112 O112    18.5965    18.5965     3.4570 O
113 O113     5.6635    22.4088     5.6635 O
114 O114    20.2023     3.4570    20.2023 O
115 O115     5.6635     3.4570    20.2023 O
116 O116    20.2023    22.4088     5.6635 O
117 O117    20.2023    22.4088    20.2023 O
118 O118     5.6635     3.4570     5.6635 O
119 O119    20.2023     3.4570     5.6635 O
120 O120     5.6635    22.4088    20.2023 O
121 O121    22.4088     5.6635    20.2023 O
122 O122     3.4570    20.2023     5.6635 O
123 O123     3.4570     5.6635     5.6635 O
124 O124    22.4088    20.2023    20.2023 O
125 O125    22.4088    20.2023     5.6635 O
126 O126     3.4570     5.6635    20.2023 O
127 O127     3.4570    20.2023    20.2023 O
128 O128    22.4088     5.6635     5.6635 O
129 O129    22.4088     7.2694     7.2694 O
130 O130     3.4570    18.5965    18.5965 O
131 O131     3.4570    18.5965     7.2694 O
132 O132    22.4088     7.2694    18.5965 O
133 O133    22.4088    18.5965    18.5965 O
134 O134     3.4570     7.2694     7.2694 O
135 O135     3.4570     7.2694    18.5965 O
136 O136    22.4088    18.5965     7.2694 O
137 C137     6.4665    10.0519     6.4665 C
138 C138    19.3994    15.8139    19.3994 C
139 C139    19.3994    15.8139     6.4665 C
140 C140     6.4665    10.0519    19.3994 C
141 C141    19.3994    10.0519    19.3994 C
142 C142     6.4665    15.8139     6.4665 C
143 C143     6.4665    15.8139    19.3994 C
144 C144    19.3994    10.0519     6.4665 C
145 C145     6.4665     6.4665    10.0519 C
146 C146    19.3994    19.3994    15.8139 C
147 C147     6.4665    19.3994    15.8139 C
148 C148    19.3994     6.4665    10.0519 C
149 C149    19.3994    19.3994    10.0519 C
150 C150     6.4665     6.4665    15.8139 C
151 C151    19.3994     6.4665    15.8139 C
152 C152     6.4665    19.3994    10.0519 C
153 C153    10.0519     6.4665     6.4665 C
154 C154    15.8139    19.3994    19.3994 C
155 C155    15.8139     6.4665    19.3994 C
156 C156    10.0519    19.3994     6.4665 C
157 C157    10.0519    19.3994    19.3994 C
158 C158    15.8139     6.4665     6.4665 C
159 C159    15.8139    19.3994     6.4665 C
160 C160    10.0519     6.4665    19.3994 C
161 C161     6.4665    22.9848    19.3994 C
162 C162    19.3994     2.8810     6.4665 C
163 C163    19.3994     2.8810    19.3994 C
164 C164     6.4665    22.9848     6.4665 C
165 C165    19.3994    22.9848     6.4665 C
166 C166     6.4665     2.8810    19.3994 C
167 C167     6.4665     2.8810     6.4665 C
168 C168    19.3994    22.9848    19.3994 C
169 C169     6.4665    19.3994    22.9848 C
170 C170    19.3994     6.4665     2.8810 C
171 C171     6.4665     6.4665     2.8810 C
172 C172    19.3994    19.3994    22.9848 C
173 C173    19.3994     6.4665    22.9848 C
174 C174     6.4665    19.3994     2.8810 C
175 C175    19.3994    19.3994     2.8810 C
176 C176     6.4665     6.4665    22.9848 C
177 C177    22.9848     6.4665    19.3994 C
178 C178     2.8810    19.3994     6.4665 C
179 C179     2.8810     6.4665     6.4665 C
180 C180    22.9848    19.3994    19.3994 C
181 C181    22.9848    19.3994     6.4665 C
182 C182     2.8810     6.4665    19.3994 C
183 C183     2.8810    19.3994    19.3994 C
184 C184    22.9848     6.4665     6.4665 C
185 C185     6.4665    11.5411     6.4665 C
186 C186    19.3994    14.3247    19.3994 C
187 C187    19.3994    14.3247     6.4665 C
188 C188     6.4665    11.5411    19.3994 C
189 C189    19.3994    11.5411    19.3994 C
190 C190     6.4665    14.3247     6.4665 C
191 C191     6.4665    14.3247    19.3994 C
192 C192    19.3994    11.5411     6.4665 C
193 C193     6.4665     6.4665    11.5411 C
194 C194    19.3994    19.3994    14.3247 C
195 C195     6.4665    19.3994    14.3247 C
196 C196    19.3994     6.4665    11.5411 C
197 C197    19.3994    19.3994    11.5411 C
198 C198     6.4665     6.4665    14.3247 C
199 C199    19.3994     6.4665    14.3247 C
200 C200     6.4665    19.3994    11.5411 C
201 C201    11.5411     6.4665     6.4665 C
202 C202    14.3247    19.3994    19.3994 C
203 C203    14.3247     6.4665    19.3994 C
204 C204    11.5411    19.3994     6.4665 C
205 C205    11.5411    19.3994    19.3994 C
206 C206    14.3247     6.4665     6.4665 C
207 C207    14.3247    19.3994     6.4665 C
208 C208    11.5411     6.4665    19.3994 C
209 C209     6.4665    24.4741    19.3994 C
210 C210    19.3994     1.3918     6.4665 C
211 C211    19.3994     1.3918    19.3994 C
212 C212     6.4665    24.4741     6.4665 C
213 C213    19.3994    24.4741     6.4665 C
214 C214     6.4665     1.3918    19.3994 C
215 C215     6.4665     1.3918     6.4665 C
216 C216    19.3994    24.4741    19.3994 C
217 C217     6.4665    19.3994    24.4741 C
218 C218    19.3994     6.4665     1.3918 C
219 C219     6.4665     6.4665     1.3918 C
220 C220    19.3994    19.3994    24.4741 C
221 C221    19.3994     6.4665    24.4741 C
222 C222     6.4665    19.3994     1.3918 C
223 C223    19.3994    19.3994     1.3918 C
224 C224     6.4665     6.4665    24.4741 C
225 C225    24.4741     6.4665    19.3994 C
226 C226     1.3918    19.3994     6.4665 C
227 C227     1.3918     6.4665     6.4665 C
228 C228    24.4741    19.3994    19.3994 C
229 C229    24.4741    19.3994     6.4665 C
230 C230     1.3918     6.4665    19.3994 C
231 C231     1.3918    19.3994    19.3994 C
232 C232    24.4741     6.4665     6.4665 C
233 C233     7.3244    12.2392     5.6086 C
234 C234    18.5415    13.6267    20.2573 C
235 C235    18.5415    13.6267     5.6086 C
236 C236     7.3244    12.2392    20.2573 C
237 C237    18.5415    12.2392    20.2573 C
238 C238     7.3244    13.6267     5.6086 C
239 C239     7.3244    13.6267    20.2573 C
240 C240    18.5415    12.2392     5.6086 C
241 C241     5.6086     7.3244    12.2392 C
242 C242    20.2573    18.5415    13.6267 C
243 C243     5.6086    18.5415    13.6267 C
244 C244    20.2573     7.3244    12.2392 C
245 C245    20.2573    18.5415    12.2392 C
246 C246     5.6086     7.3244    13.6267 C
247 C247    20.2573     7.3244    13.6267 C
248 C248     5.6086    18.5415    12.2392 C
249 C249    12.2392     5.6086     7.3244 C
250 C250    13.6267    20.2573    18.5415 C
251 C251    13.6267     5.6086    18.5415 C
252 C252    12.2392    20.2573     7.3244 C
253 C253    12.2392    20.2573    18.5415 C
254 C254    13.6267     5.6086     7.3244 C
255 C255    13.6267    20.2573     7.3244 C
256 C256    12.2392     5.6086    18.5415 C
257 C257    12.2392     7.3244    20.2573 C
258 C258    13.6267    18.5415     5.6086 C
259 C259    13.6267    18.5415    20.2573 C
260 C260    12.2392     7.3244     5.6086 C
261 C261    12.2392    18.5415     5.6086 C
262 C262    13.6267     7.3244    20.2573 C
263 C263    13.6267     7.3244     5.6086 C
264 C264    12.2392    18.5415    20.2573 C
265 C265     7.3244     5.6086    13.6267 C
266 C266    18.5415    20.2573    12.2392 C
267 C267    18.5415     5.6086    12.2392 C
268 C268     7.3244    20.2573    13.6267 C
269 C269    18.5415    20.2573    13.6267 C
270 C270     7.3244     5.6086    12.2392 C
271 C271     7.3244    20.2573    12.2392 C
272 C272    18.5415     5.6086    13.6267 C
273 C273     5.6086    12.2392    18.5415 C
274 C274    20.2573    13.6267     7.3244 C
275 C275     5.6086    13.6267     7.3244 C
276 C276    20.2573    12.2392    18.5415 C
277 C277    20.2573    12.2392     7.3244 C
278 C278     5.6086    13.6267    18.5415 C
279 C279    20.2573    13.6267    18.5415 C
280 C280     5.6086    12.2392     7.3244 C
281 C281     7.3244    25.1721    18.5415 C
282 C282    18.5415     0.6937     7.3244 C
283 C283    18.5415     0.6937    18.5415 C
284 C284     7.3244    25.1721     7.3244 C
285 C285    18.5415    25.1721     7.3244 C
286 C286     7.3244     0.6937    18.5415 C
287 C287     7.3244     0.6937     7.3244 C
288 C288    18.5415    25.1721    18.5415 C
289 C289     5.6086    20.2573    25.1721 C
290 C290    20.2573     5.6086     0.6937 C
291 C291     5.6086     5.6086     0.6937 C
292 C292    20.2573    20.2573    25.1721 C
293 C293    20.2573     5.6086    25.1721 C
294 C294     5.6086    20.2573     0.6937 C
295 C295    20.2573    20.2573     0.6937 C
296 C296     5.6086     5.6086    25.1721 C
297 C297     7.3244    18.5415     0.6937 C
298 C298    18.5415     7.3244    25.1721 C
299 C299    18.5415    18.5415    25.1721 C
300 C300     7.3244     7.3244     0.6937 C
301 C301    18.5415     7.3244     0.6937 C
302 C302     7.3244    18.5415    25.1721 C
303 C303     7.3244     7.3244    25.1721 C
304 C304    18.5415    18.5415     0.6937 C
305 C305     5.6086    25.1721     5.6086 C
306 C306    20.2573     0.6937    20.2573 C
307 C307     5.6086     0.6937    20.2573 C
308 C308    20.2573    25.1721     5.6086 C
309 C309    20.2573    25.1721    20.2573 C
310 C310     5.6086     0.6937     5.6086 C
311 C311    20.2573     0.6937     5.6086 C
312 C312     5.6086    25.1721    20.2573 C
313 C313    25.1721     5.6086    20.2573 C
314 C314     0.6937    20.2573     5.6086 C
315 C315     0.6937     5.6086     5.6086 C
316 C316    25.1721    20.2573    20.2573 C
317 C317    25.1721    20.2573     5.6086 C
318 C318     0.6937     5.6086    20.2573 C
319 C319     0.6937    20.2573    20.2573 C
320 C320    25.1721     5.6086     5.6086 C
321 C321    25.1721     7.3244     7.3244 C
322 C322     0.6937    18.5415    18.5415 C
323 C323     0.6937    18.5415     7.3244 C
324 C324    25.1721     7.3244    18.5415 C
325 C325    25.1721    18.5415    18.5415 C
326 C326     0.6937     7.3244     7.3244 C
327 C327     0.6937     7.3244    18.5415 C
328 C328    25.1721    18.5415     7.3244 C
329 H329     7.9845    11.6704     4.9484 H
330 H330    17.8813    14.1954    20.9174 H
331 H331    17.8813    14.1954     4.9484 H
332 H332     7.9845    11.6704    20.9174 H
333 H333    17.8813    11.6704    20.9174 H
334 H334     7.9845    14.1954     4.9484 H
335 H335     7.9845    14.1954    20.9174 H
336 H336    17.8813    11.6704     4.9484 H
337 H337     4.9484     7.9845    11.6704 H
338 H338    20.9174    17.8813    14.1954 H
339 H339     4.9484    17.8813    14.1954 H
340 H340    20.9174     7.9845    11.6704 H
341 H341    20.9174    17.8813    11.6704 H
342 H342     4.9484     7.9845    14.1954 H
343 H343    20.9174     7.9845    14.1954 H
344 H344     4.9484    17.8813    11.6704 H
345 H345    11.6704     4.9484     7.9845 H
346 H346    14.1954    20.9174    17.8813 H
347 H347    14.1954     4.9484    17.8813 H
348 H348    11.6704    20.9174     7.9845 H
349 H349    11.6704    20.9174    17.8813 H
350 H350    14.1954     4.9484     7.9845 H
351 H351    14.1954    20.9174     7.9845 H
352 H352    11.6704     4.9484    17.8813 H
353 H353    11.6704     7.9845    20.9174 H
354 H354    14.1954    17.8813     4.9484 H
355 H355    14.1954    17.8813    20.9174 H
356 H356    11.6704     7.9845     4.9484 H
357 H357    11.6704    17.8813     4.9484 H
358 H358    14.1954     7.9845    20.9174 H
359 H359    14.1954     7.9845     4.9484 H
360 H360    11.6704    17.8813    20.9174 H
361 H361     7.9845     4.9484    14.1954 H
362 H362    17.8813    20.9174    11.6704 H
363 H363    17.8813     4.9484    11.6704 H
364 H364     7.9845    20.9174    14.1954 H
365 H365    17.8813    20.9174    14.1954 H
366 H366     7.9845     4.9484    11.6704 H
367 H367     7.9845    20.9174    11.6704 H
368 H368    17.8813     4.9484    14.1954 H
369 H369     4.9484    11.6704    17.8813 H
370 H370    20.9174    14.1954     7.9845 H
371 H371     4.9484    14.1954     7.9845 H
372 H372    20.9174    11.6704    17.8813 H
373 H373    20.9174    11.6704     7.9845 H
374 H374     4.9484    14.1954    17.8813 H
375 H375    20.9174    14.1954    17.8813 H
376 H376     4.9484    11.6704     7.9845 H
377 H377     7.9845    24.6033    17.8813 H
378 H378    17.8813     1.2625     7.9845 H
379 H379    17.8813     1.2625    17.8813 H
380 H380     7.9845    24.6033     7.9845 H
381 H381    17.8813    24.6033     7.9845 H
382 H382     7.9845     1.2625    17.8813 H
383 H383     7.9845     1.2625     7.9845 H
384 H384    17.8813    24.6033    17.8813 H
385 H385     4.9484    20.9174    24.6033 H
386 H386    20.9174     4.9484     1.2625 H
387 H387     4.9484     4.9484     1.2625 H
388 H388    20.9174    20.9174    24.6033 H
389 H389    20.9174     4.9484    24.6033 H
390 H390     4.9484    20.9174     1.2625 H
391 H391    20.9174    20.9174     1.2625 H
392 H392     4.9484     4.9484    24.6033 H
393 H393     7.9845    17.8813     1.2625 H
394 H394    17.8813     7.9845    24.6033 H
395 H395    17.8813    17.8813    24.6033 H
396 H396     7.9845     7.9845     1.2625 H
397 H397    17.8813     7.9845     1.2625 H
398 H398     7.9845    17.8813    24.6033 H
399 H399     7.9845     7.9845    24.6033 H
400 H400    17.8813    17.8813     1.2625 H
401 H401     4.9484    24.6033     4.9484 H
402 H402    20.9174     1.2625    20.9174 H
403 H403     4.9484     1.2625    20.9174 H
404 H404    20.9174    24.6033     4.9484 H
405 H405    20.9174    24.6033    20.9174 H
406 H406     4.9484     1.2625     4.9484 H
407 H407    20.9174     1.2625     4.9484 H
408 H408     4.9484    24.6033    20.9174 H
409 H409    24.6033     4.9484    20.9174 H
410 H410     1.2625    20.9174     4.9484 H
411 H411     1.2625     4.9484     4.9484 H
412 H412    24.6033    20.9174    20.9174 H
413 H413    24.6033    20.9174     4.9484 H
414 H414     1.2625     4.9484    20.9174 H
415 H415     1.2625    20.9174    20.9174 H
416 H416    24.6033     4.9484     4.9484 H
417 H417    24.6033     7.9845     7.9845 H
418 H418     1.2625    17.8813    17.8813 H
419 H419     1.2625    17.8813     7.9845 H
420 H420    24.6033     7.9845    17.8813 H
421 H421    24.6033    17.8813    17.8813 H
422 H422     1.2625     7.9845     7.9845 H
423 H423     1.2625     7.9845    17.8813 H
424 H424    24.6033    17.8813     7.9845 H
@<TRIPOS>BOND
1 1 33 1
2 1 41 1
3 1 68 1
4 1 108 1
5 2 34 1
6 2 42 1
7 2 67 1
8 2 107 1
9 3 35 1
10 3 43 1
11 3 66 1
12 3 112 1
13 4 36 1
14 4 44 1
15 4 65 1
16 4 111 1
17 5 37 1
18 5 45 1
19 5 70 1
20 5 106 1
21 6 38 1
22 6 46 1
23 6 69 1
24 6 105 1
25 7 39 1
26 7 47 1
27 7 72 1
28 7 110 1
29 8 40 1
30 8 48 1
31 8 71 1
32 8 109 1
33 9 33 1
34 9 49 1
35 9 88 1
36 9 134 1
37 10 34 1
38 10 50 1
39 10 87 1
40 10 133 1
41 11 39 1
42 11 51 1
43 11 86 1
44 11 130 1
45 12 40 1
46 12 52 1
47 12 85 1
48 12 129 1
49 13 35 1
50 13 53 1
51 13 82 1
52 13 136 1
53 14 36 1
54 14 54 1
55 14 81 1
56 14 135 1
57 15 37 1
58 15 55 1
59 15 84 1
60 15 132 1
61 16 38 1
62 16 56 1
63 16 83 1
64 16 131 1
65 17 33 1
66 17 57 1
67 17 78 1
68 17 95 1
69 18 34 1
70 18 58 1
71 18 77 1
72 18 96 1
73 19 37 1
74 19 59 1
75 19 80 1
76 19 91 1
77 20 38 1
78 20 60 1
79 20 79 1
80 20 92 1
81 21 39 1
82 21 61 1
83 21 76 1
84 21 89 1
85 22 40 1
86 22 62 1
87 22 75 1
88 22 90 1
89 23 35 1
90 23 63 1
91 23 74 1
92 23 93 1
93 24 36 1
94 24 64 1
95 24 73 1
96 24 94 1
97 25 39 1
98 25 97 1
99 25 120 1
100 25 127 1
101 26 40 1
102 26 98 1
103 26 119 1
104 26 128 1
105 27 33 1
106 27 99 1
107 27 118 1
108 27 123 1
109 28 34 1
110 28 100 1
111 28 117 1
112 28 124 1
113 29 37 1
114 29 101 1
115 29 114 1
116 29 121 1
117 30 38 1
118 30 102 1
119 30 113 1
120 30 122 1
121 31 35 1
122 31 103 1
123 31 116 1
124 31 125 1
125 32 36 1
126 32 104 1
127 32 115 1
128 32 126 1
129 41 137 2
130 42 138 2
131 43 139 2
132 44 140 2
133 45 141 2
134 46 142 2
135 47 143 2
136 48 144 2
137 49 145 2
138 50 146 2
139 51 147 2
140 52 148 2
141 53 149 2
142 54 150 2
143 55 151 2
144 56 152 2
145 57 153 2
146 58 154 2
147 59 155 2
148 60 156 2
149 61 157 2
150 62 158 2
151 63 159 2
152 64 160 2
153 65 160 2
154 66 159 2
155 67 154 2
156 68 153 2
157 69 156 2
158 70 155 2
159 71 158 2
160 72 157 2
161 73 150 2
162 74 149 2
163 75 148 2
164 76 147 2
165 77 146 2
166 78 145 2
167 79 152 2
168 80 151 2
169 81 140 2
170 82 139 2
171 83 142 2
172 84 141 2
173 85 144 2
174 86 143 2
175 87 138 2
176 88 137 2
177 89 161 2
178 90 162 2
179 91 163 2
180 92 164 2
181 93 165 2
182 94 166 2
183 95 167 2
184 96 168 2
185 97 169 2
186 98 170 2
187 99 171 2
188 100 172 2
189 101 173 2
190 102 174 2
191 103 175 2
192 104 176 2
193 105 174 2
194 106 173 2
195 107 172 2
196 108 171 2
197 109 170 2
198 110 169 2
199 111 176 2
200 112 175 2
201 113 164 2
202 114 163 2
203 115 166 2
204 116 165 2
205 117 168 2
206 118 167 2
207 119 162 2
208 120 161 2
209 121 177 2
210 122 178 2
211 123 179 2
212 124 180 2
213 125 181 2
214 126 182 2
215 127 183 2
216 128 184 2
217 129 184 2
218 130 183 2
219 131 178 2
220 132 177 2
221 133 180 2
222 134 179 2
223 135 182 2
224 136 181 2
225 137 185 1
226 138 186 1
227 139 187 1
228 140 188 1
229 141 189 1
230 142 190 1
231 143 191 1
232 144 192 1
233 145 193 1
234 146 194 1
235 147 195 1
236 148 196 1
237 149 197 1
238 150 198 1
239 151 199 1
240 152 200 1
241 153 201 1
242 154 202 1
243 155 203 1
244 156 204 1
245 157 205 1
246 158 206 1
247 159 207 1
248 160 208 1
249 161 209 1
250 162 210 1
251 163 211 1
252 164 212 1
253 165 213 1
254 166 214 1
255 167 215 1
256 168 216 1
257 169 217 1
258 170 218 1
259 171 219 1
260 172 220 1
261 173 221 1
262 174 222 1
263 175 223 1
264 176 224 1
265 177 225 1
266 178 226 1
267 179 227 1
268 180 228 1
269 181 229 1
270 182 230 1
271 183 231 1
272 184 232 1
273 185 233 Ar
274 185 280 Ar
275 186 234 Ar
276 186 279 Ar
277 187 235 Ar
278 187 274 Ar
279 188 236 Ar
280 188 273 Ar
281 189 237 Ar
282 189 276 Ar
283 190 238 Ar
284 190 275 Ar
285 191 239 Ar
286 191 278 Ar
287 192 240 Ar
288 192 277 Ar
289 193 241 Ar
290 193 270 Ar
291 194 242 Ar
292 194 269 Ar
293 195 243 Ar
294 195 268 Ar
295 196 244 Ar
296 196 267 Ar
297 197 245 Ar
298 197 266 Ar
299 198 246 Ar
300 198 265 Ar
301 199 247 Ar
302 199 272 Ar
303 200 248 Ar
304 200 271 Ar
305 201 249 Ar
306 201 260 Ar
307 202 250 Ar
308 202 259 Ar
309 203 251 Ar
310 203 262 Ar
311 204 252 Ar
312 204 261 Ar
313 205 253 Ar
314 205 264 Ar
315 206 254 Ar
316 206 263 Ar
317 207 255 Ar
318 207 258 Ar
319 208 256 Ar
320 208 257 Ar
321 209 281 Ar
322 209 312 Ar
323 210 282 Ar
324 210 311 Ar
325 211 283 Ar
326 211 306 Ar
327 212 284 Ar
328 212 305 Ar
329 213 285 Ar
330 213 308 Ar
331 214 286 Ar
332 214 307 Ar
333 215 287 Ar
334 215 310 Ar
335 216 288 Ar
336 216 309 Ar
337 217 289 Ar
338 217 302 Ar
339 218 290 Ar
340 218 301 Ar
341 219 291 Ar
342 219 300 Ar
343 220 292 Ar
344 220 299 Ar
345 221 293 Ar
346 221 298 Ar
347 222 294 Ar
348 222 297 Ar
349 223 295 Ar
350 223 304 Ar
351 224 296 Ar
352 224 303 Ar
353 225 313 Ar
354 225 324 Ar
355 226 314 Ar
356 226 323 Ar
357 227 315 Ar
358 227 326 Ar
359 228 316 Ar
360 228 325 Ar
361 229 317 Ar
362 229 328 Ar
363 230 318 Ar
364 230 327 Ar
365 231 319 Ar
366 231 322 Ar
367 232 320 Ar
368 232 321 Ar
369 233 238 Ar
370 233 329 1
371 234 237 Ar
372 234 330 1
373 235 240 Ar
374 235 331 1
375 236 239 Ar
376 236 332 1
377 237 333 1
378 238 334 1
379 239 335 1
380 240 336 1
381 241 246 Ar
382 241 337 1
383 242 245 Ar
384 242 338 1
385 243 248 Ar
386 243 339 1
387 244 247 Ar
388 244 340 1
389 245 341 1
390 246 342 1
391 247 343 1
392 248 344 1
393 249 254 Ar
394 249 345 1
395 250 253 Ar
396 250 346 1
397 251 256 Ar
398 251 347 1
399 252 255 Ar
400 252 348 1
401 253 349 1
402 254 350 1
403 255 351 1
404 256 352 1
405 257 262 Ar
406 257 353 1
407 258 261 Ar
408 258 354 1
409 259 264 Ar
410 259 355 1
411 260 263 Ar
412 260 356 1
413 261 357 1
414 262 358 1
415 263 359 1
416 264 360 1
417 265 270 Ar
418 265 361 1
419 266 269 Ar
420 266 362 1
421 267 272 Ar
422 267 363 1
423 268 271 Ar
424 268 364 1
425 269 365 1
426 270 366 1
427 271 367 1
428 272 368 1
429 273 278 Ar
430 273 369 1
431 274 277 Ar
432 274 370 1
433 275 280 Ar
434 275 371 1
435 276 279 Ar
436 276 372 1
437 277 373 1
438 278 374 1
439 279 375 1
440 280 376 1
441 281 377 1
442 281 286 Ar
443 282 378 1
444 282 285 Ar
445 283 379 1
446 283 288 Ar
447 284 380 1
448 284 287 Ar
449 285 381 1
450 286 382 1
451 287 383 1
452 288 384 1
453 289 385 1
454 289 294 Ar
455 290 386 1
456 290 293 Ar
457 291 387 1
458 291 296 Ar
459 292 388 1
460 292 295 Ar
461 293 389 1
462 294 390 1
463 295 391 1
464 296 392 1
465 297 393 1
466 297 302 Ar
467 298 394 1
468 298 301 Ar
469 299 395 1
470 299 304 Ar
471 300 396 1
472 300 303 Ar
473 301 397 1
474 302 398 1
475 303 399 1
476 304 400 1
477 305 401 1
478 305 310 Ar
479 306 402 1
480 306 309 Ar
481 307 403 1
482 307 312 Ar
483 308 404 1
484 308 311 Ar
485 309 405 1
486 310 406 1
487 311 407 1
488 312 408 1
489 313 409 1
490 313 318 Ar
491 314 410 1
492 314 317 Ar
493 315 411 1
494 315 320 Ar
495 316 412 1
496 316 319 Ar
497 317 413 1
498 318 414 1
499 319 415 1
500 320 416 1
501 321 417 1
502 321 326 Ar
503 322 418 1
504 322 325 Ar
505 323 419 1
506 323 328 Ar
507 324 420 1
508 324 327 Ar
509 325 421 1
510 326 422 1
511 327 423 1
512 328 424 1
